"""
VERSION:  17_03
AUTHORS:  C1-C3   Burcat
NOTE:     SPECIES RE-ARRANGED AS THE SAME ORDER IN MECH

VERSION:  17_05
Following species are updated from Burcat's Database:Kik
 C6H5CHCH3	FLUORENE	C5H6	INDENYL	C14H19	C12H7	C12H9
 C6H5CH2C6H5	C10H7	CH3C6H4	C6H5C2H	C6H5O	C6H5C2H3	C10H7CH3
 C10H7CHO	RXYLENE	C10H7CH2	XYLENE	C6H2	Toluene	C6H5OH
 C14H10	C6H5C2H4C6H5	C4H2	C16H10	C5H5CH3	C7H7	BENZYNE
 C6H5C2H2	C12H8	C6H5C2H5	C10H7O	BENZENE	C4H4	INDENE
 C5H5	C10H6CH3	C6H5 	C10H8	FULVENE	BIPHENYL	C6H4C2H
Following species are updated from ATcT's Database:Ghobad
 H	H2	O	O2	HE
 OH	H2O	N2	HO2	HCO
 H2O2	AR	CO	CO2

"""

units(length='cm', time='s', quantity='mol', act_energy='cal/mol')

ideal_gas(name='pyrolysis',
          elements="C H O N He",
          species="""N2             HE             P-C16H16-P
                     P-C16H15-P     P-C16H17       P-C16H15
                     P-C16H16       P-C16H16_T     P-C16H14
                     P-C16H14_A     C8H10          C8H8
                     C6H4           C16H18         C24H26
                     C16H16         C24H24         C16H14
                     C24H22         C16H17         C24H25
                     C16H17_T       C24H25_T       C24H23
                     C16H15_T       C24H23_T       C24H23_A
                     C24H21_A       C7H8           C9H10
                     C15H16         C15H15_T       C9H12
                     C6H6           C2H4           C3H6
                     C4H8-1         P-C16H16-P(L)  P-C16H15-P(L)
                     P-C16H17(L)    P-C16H15(L)    P-C16H16(L)
                     P-C16H16_T(L)  P-C16H14(L)    P-C16H14_A(L)
                     C16H18(L)      C24H26(L)      C16H16(L)
                     C24H24(L)      C16H14(L)      C24H22(L)
                     C16H17(L)      C24H25(L)      C16H17_T(L)
                     C24H25_T(L)    C24H23(L)      C16H15_T(L)
                     C24H23_T(L)    C24H23_A(L)    C24H21_A(L)
                     C15H16(L)      C15H15_T(L)""",
          reactions='all',
          initial_state=state(temperature=300.0, pressure=OneAtm))

#-------------------------------------------------------------------------------
# Species data
#-------------------------------------------------------------------------------

species(name='N2',
        atoms='N:2',
        thermo=(NASA([200.00, 1000.00],
                     [ 3.53603521E+00, -1.58270944E-04, -4.26984251E-07,
                       2.37542590E-09, -1.39708206E-12, -1.04749645E+03,
                       2.94603724E+00]),
                NASA([1000.00, 6000.00],
                     [ 2.93802970E+00,  1.41838030E-03, -5.03281045E-07,
                       8.07555464E-11, -4.76064275E-15, -9.17180990E+02,
                       5.95521985E+00])),
        note='ATcT3E')

species(name='HE',
        atoms='He:1',
        thermo=(NASA([200.00, 1000.00],
                     [ 2.49976293E+00,  1.01013432E-06, -8.24578465E-10,
                      -6.85983306E-13,  7.24751856E-16, -7.45340917E+02,
                       9.29800315E-01]),
                NASA([1000.00, 6000.00],
                     [ 2.49985609E+00,  2.19365392E-07, -1.07525085E-10,
                       2.07198041E-14, -1.39358612E-18, -7.45309155E+02,
                       9.29535014E-01])),
        note='ATcT3E')

species(name='P-C16H16-P',
        atoms='C:16 H:16 O:0 N:0',
        thermo=(NASA([200.00, 2000.00],
                     [ 2.54557987E+01,  4.71331569E-02,  2.07689452E-05,
                      -3.05072102E-08,  8.11919079E-12, -2.19477244E+03,
                      -1.22609262E+02]),
                NASA([2000.00, 2000.00],
                     [ 2.54557987E+01,  4.71331569E-02,  2.07689452E-05,
                      -3.05072102E-08,  8.11919079E-12, -2.19477244E+03,
                      -1.22609262E+02])))

species(name='P-C16H15-P',
        atoms='C:16 H:15 O:0 N:0',
        thermo=(NASA([200.00, 2000.00],
                     [ 2.63335944E+01,  4.13799358E-02,  3.03889806E-05,
                      -4.03270777E-08,  1.15504818E-11,  1.10632099E+04,
                      -1.28640372E+02]),
                NASA([2000.00, 2000.00],
                     [ 2.63335944E+01,  4.13799358E-02,  3.03889806E-05,
                      -4.03270777E-08,  1.15504818E-11,  1.10632099E+04,
                      -1.28640372E+02])))

species(name='P-C16H17',
        atoms='C:16 H:17 O:0 N:0',
        thermo=(NASA([200.00, 2000.00],
                     [ 2.56726504E+01,  4.79519379E-02,  2.06836454E-05,
                      -3.01571688E-08,  7.94557329E-12, -4.21402308E+03,
                      -1.22609262E+02]),
                NASA([2000.00, 2000.00],
                     [ 2.56726504E+01,  4.79519379E-02,  2.06836454E-05,
                      -3.01571688E-08,  7.94557329E-12, -4.21402308E+03,
                      -1.22609262E+02])))

species(name='P-C16H15',
        atoms='C:16 H:15 O:0 N:0',
        thermo=(NASA([200.00, 2000.00],
                     [ 3.41668539E+01,  6.94879840E-02, -5.32634683E-05,
                       3.04733566E-08, -7.04576217E-12,  3.17669495E+03,
                      -1.22609262E+02]),
                NASA([2000.00, 2000.00],
                     [ 3.41668539E+01,  6.94879840E-02, -5.32634683E-05,
                       3.04733566E-08, -7.04576217E-12,  3.17669495E+03,
                      -1.22609262E+02])))

species(name='P-C16H16',
        atoms='C:16 H:16 O:0 N:0',
        thermo=(NASA([200.00, 2000.00],
                     [ 2.65504461E+01,  4.21987168E-02,  3.03036808E-05,
                      -3.99770363E-08,  1.13768643E-11,  9.04395928E+03,
                      -1.28640372E+02]),
                NASA([2000.00, 2000.00],
                     [ 2.65504461E+01,  4.21987168E-02,  3.03036808E-05,
                      -3.99770363E-08,  1.13768643E-11,  9.04395928E+03,
                      -1.28640372E+02])))

species(name='P-C16H16_T',
        atoms='C:16 H:16 O:0 N:0',
        thermo=(NASA([200.00, 2000.00],
                     [ 2.55619854E+01,  5.02447393E-02,  1.17374168E-05,
                      -2.28657347E-08,  6.04208608E-12,  1.06664232E+04,
                      -1.23979383E+02]),
                NASA([2000.00, 2000.00],
                     [ 2.55619854E+01,  5.02447393E-02,  1.17374168E-05,
                      -2.28657347E-08,  6.04208608E-12,  1.06664232E+04,
                      -1.23979383E+02])))

species(name='P-C16H14',
        atoms='C:16 H:14 O:0 N:0',
        thermo=(NASA([200.00, 2000.00],
                     [ 3.50446496E+01,  6.37347629E-02, -4.36434329E-05,
                       2.06534891E-08, -3.61447113E-12,  1.64346773E+04,
                      -1.28640372E+02]),
                NASA([2000.00, 2000.00],
                     [ 3.50446496E+01,  6.37347629E-02, -4.36434329E-05,
                       2.06534891E-08, -3.61447113E-12,  1.64346773E+04,
                      -1.28640372E+02])))

species(name='P-C16H14_A',
        atoms='C:16 H:14 O:0 N:0',
        thermo=(NASA([200.00, 2000.00],
                     [ 3.49926810E+01,  6.37525519E-02, -4.33847084E-05,
                       2.09265943E-08, -3.87896985E-12,  1.99744107E+04,
                      -1.28714347E+02]),
                NASA([2000.00, 2000.00],
                     [ 3.49926810E+01,  6.37525519E-02, -4.33847084E-05,
                       2.09265943E-08, -3.87896985E-12,  1.99744107E+04,
                      -1.28714347E+02])))

species(name='C8H10',
        atoms='C:8 H:10 O:0 N:0',
        thermo=(NASA([200.00, 656.76],
                     [-2.65141357E+00,  7.09386736E-02, -3.21850617E-05,
                      -6.20679347E-10,  3.10816894E-12, -1.08117474E+03,
                       4.80986373E+01]),
                NASA([656.76, 2000.00],
                     [-2.65141357E+00,  7.09386736E-02, -3.21850617E-05,
                      -6.20679347E-10,  3.10816894E-12, -1.08117474E+03,
                       4.80986373E+01])))

species(name='C8H8',
        atoms='C:8 H:8 O:0 N:0',
        thermo=(NASA([200.00, 707.73],
                     [-5.48962328E+00,  8.40554047E-02, -6.86392945E-05,
                       2.93124252E-08, -5.10905001E-12,  1.61057135E+04,
                       5.01289859E+01]),
                NASA([707.73, 2000.00],
                     [-5.48962328E+00,  8.40554047E-02, -6.86392945E-05,
                       2.93124252E-08, -5.10905001E-12,  1.61057135E+04,
                       5.01289859E+01])))

species(name='C6H4',
        atoms='C:6 H:4 O:0 N:0',
        thermo=(NASA([200.00, 2000.00],
                     [ 3.29812400E+00,  8.24944120E-04, -8.14301470E-07,
                      -9.47543430E-11,  4.13487200E-13, -1.01252100E+03,
                      -3.29409400E+00]),
                NASA([2000.00, 2000.00],
                     [ 2.99142300E+00,  7.00064410E-04, -5.63382800E-08,
                      -9.23157820E-12,  1.58275200E-15, -8.35033800E+02,
                      -1.35511000E+00])))

species(name='C16H18',
        atoms='C:16 H:18 O:0 N:0',
        thermo=(NASA([200.00, 820.55],
                     [-1.06776915E+01,  1.70077094E-01, -1.22677885E-04,
                       4.22153687E-08, -5.31971563E-12,  1.11597132E+04,
                       7.99534183E+01]),
                NASA([820.55, 2000.00],
                     [-1.06776915E+01,  1.70077094E-01, -1.22677885E-04,
                       4.22153687E-08, -5.31971563E-12,  1.11597132E+04,
                       7.99534183E+01])))

species(name='C24H26',
        atoms='C:24 H:26 O:0 N:0',
        thermo=(NASA([200.00, 910.76],
                     [-1.70118628E+01,  2.58543576E-01, -1.90890440E-04,
                       6.74000463E-08, -8.76805421E-12,  1.88909769E+04,
                       1.15476553E+02]),
                NASA([910.76, 2000.00],
                     [-1.70118628E+01,  2.58543576E-01, -1.90890440E-04,
                       6.74000463E-08, -8.76805421E-12,  1.88909769E+04,
                       1.15476553E+02])))

species(name='C16H16',
        atoms='C:16 H:16 O:0 N:0',
        thermo=(NASA([200.00, 848.97],
                     [-1.01755961E+01,  1.74859279E-01, -1.27840674E-04,
                       4.53033124E-08, -6.01309789E-12,  2.08110408E+04,
                       7.94431970E+01]),
                NASA([848.97, 2000.00],
                     [-1.01755961E+01,  1.74859279E-01, -1.27840674E-04,
                       4.53033124E-08, -6.01309789E-12,  2.08110408E+04,
                       7.94431970E+01])))

species(name='C24H24',
        atoms='C:24 H:24 O:0 N:0',
        thermo=(NASA([200.00, 933.44],
                     [-1.65097674E+01,  2.63325761E-01, -1.96053228E-04,
                       7.04879900E-08, -9.46143647E-12,  2.85423045E+04,
                       1.14966331E+02]),
                NASA([933.44, 2000.00],
                     [-1.65097674E+01,  2.63325761E-01, -1.96053228E-04,
                       7.04879900E-08, -9.46143647E-12,  2.85423045E+04,
                       1.14966331E+02])))

species(name='C16H14',
        atoms='C:16 H:14 O:0 N:0',
        thermo=(NASA([200.00, 880.05],
                     [-9.67350074E+00,  1.79641464E-01, -1.33003462E-04,
                       4.83912560E-08, -6.70648014E-12,  3.04623685E+04,
                       7.75466814E+01]),
                NASA([880.05, 2000.00],
                     [-9.67350074E+00,  1.79641464E-01, -1.33003462E-04,
                       4.83912560E-08, -6.70648014E-12,  3.04623685E+04,
                       7.75466814E+01])))

species(name='C24H22',
        atoms='C:24 H:22 O:0 N:0',
        thermo=(NASA([200.00, 957.36],
                     [-1.60076720E+01,  2.68107946E-01, -2.01216017E-04,
                       7.35759336E-08, -1.01548187E-11,  3.81936322E+04,
                       1.13069816E+02]),
                NASA([957.36, 2000.00],
                     [-1.60076720E+01,  2.68107946E-01, -2.01216017E-04,
                       7.35759336E-08, -1.01548187E-11,  3.81936322E+04,
                       1.13069816E+02])))

species(name='C16H17',
        atoms='C:16 H:17 O:0 N:0',
        thermo=(NASA([200.00, 820.18],
                     [-7.32937766E+00,  1.51440125E-01, -9.24995675E-05,
                       1.95476374E-08,  8.68237147E-13,  2.40976424E+04,
                       6.37276763E+01]),
                NASA([820.18, 2000.00],
                     [-7.32937766E+00,  1.51440125E-01, -9.24995675E-05,
                       1.95476374E-08,  8.68237147E-13,  2.40976424E+04,
                       6.37276763E+01])))

species(name='C24H25',
        atoms='C:24 H:25 O:0 N:0',
        thermo=(NASA([200.00, 910.56],
                     [-1.36635489E+01,  2.39906606E-01, -1.60712122E-04,
                       4.47323150E-08, -2.58010144E-12,  3.18289061E+04,
                       9.92508107E+01]),
                NASA([910.56, 2000.00],
                     [-1.36635489E+01,  2.39906606E-01, -1.60712122E-04,
                       4.47323150E-08, -2.58010144E-12,  3.18289061E+04,
                       9.92508107E+01])))

species(name='C16H17_T',
        atoms='C:16 H:17 O:0 N:0',
        thermo=(NASA([200.00, 820.34],
                     [-1.09512964E+01,  1.71669763E-01, -1.29394111E-04,
                       4.77287624E-08, -6.79026171E-12,  2.61036552E+04,
                       7.99060803E+01]),
                NASA([820.34, 2000.00],
                     [-1.09512964E+01,  1.71669763E-01, -1.29394111E-04,
                       4.77287624E-08, -6.79026171E-12,  2.61036552E+04,
                       7.99060803E+01])))

species(name='C24H25_T',
        atoms='C:24 H:25 O:0 N:0',
        thermo=(NASA([200.00, 910.64],
                     [-1.72854677E+01,  2.60136244E-01, -1.97606666E-04,
                       7.29134400E-08, -1.02386003E-11,  3.38349189E+04,
                       1.15429215E+02]),
                NASA([910.64, 2000.00],
                     [-1.72854677E+01,  2.60136244E-01, -1.97606666E-04,
                       7.29134400E-08, -1.02386003E-11,  3.38349189E+04,
                       1.15429215E+02])))

species(name='C24H23',
        atoms='C:24 H:23 O:0 N:0',
        thermo=(NASA([200.00, 933.29],
                     [-1.31614536E+01,  2.44688791E-01, -1.65874911E-04,
                       4.78202586E-08, -3.27348370E-12,  4.14802337E+04,
                       9.87405894E+01]),
                NASA([933.29, 2000.00],
                     [-1.31614536E+01,  2.44688791E-01, -1.65874911E-04,
                       4.78202586E-08, -3.27348370E-12,  4.14802337E+04,
                       9.87405894E+01])))

species(name='C16H15_T',
        atoms='C:16 H:15 O:0 N:0',
        thermo=(NASA([200.00, 848.83],
                     [-1.04492010E+01,  1.76451948E-01, -1.34556900E-04,
                       5.08167060E-08, -7.48364397E-12,  3.57549828E+04,
                       7.93958591E+01]),
                NASA([848.83, 2000.00],
                     [-1.04492010E+01,  1.76451948E-01, -1.34556900E-04,
                       5.08167060E-08, -7.48364397E-12,  3.57549828E+04,
                       7.93958591E+01])))

species(name='C24H23_T',
        atoms='C:24 H:23 O:0 N:0',
        thermo=(NASA([200.00, 933.35],
                     [-1.67833723E+01,  2.64918429E-01, -2.02769455E-04,
                       7.60013836E-08, -1.09319826E-11,  4.34862465E+04,
                       1.14918993E+02]),
                NASA([933.35, 2000.00],
                     [-1.67833723E+01,  2.64918429E-01, -2.02769455E-04,
                       7.60013836E-08, -1.09319826E-11,  4.34862465E+04,
                       1.14918993E+02])))

species(name='C24H23_A',
        atoms='C:24 H:23 O:0 N:0',
        thermo=(NASA([200.00, 933.40],
                     [-1.72394401E+01,  2.60765314E-01, -1.87595088E-04,
                       6.05382379E-08, -6.03171025E-12,  4.56759207E+04,
                       1.17376286E+02]),
                NASA([933.40, 2000.00],
                     [-1.72394401E+01,  2.60765314E-01, -1.87595088E-04,
                       6.05382379E-08, -6.03171025E-12,  4.56759207E+04,
                       1.17376286E+02])))

species(name='C24H21_A',
        atoms='C:24 H:21 O:0 N:0',
        thermo=(NASA([200.00, 957.36],
                     [-1.67373447E+01,  2.65547499E-01, -1.92757876E-04,
                       6.36261815E-08, -6.72509251E-12,  5.53272483E+04,
                       1.15479771E+02]),
                NASA([957.36, 2000.00],
                     [-1.67373447E+01,  2.65547499E-01, -1.92757876E-04,
                       6.36261815E-08, -6.72509251E-12,  5.53272483E+04,
                       1.15479771E+02])))

species(name='C7H8',
        atoms='C:7 H:8',
        thermo=(NASA([200.00, 1000.00],
                     [ 1.61200102E+00,  2.11179855E-02,  8.53239986E-05,
                      -1.32568501E-07,  5.59411406E-11,  4.09654820E+03,
                       2.02969771E+01]),
                NASA([1000.00, 6000.00],
                     [ 1.29393610E+01,  2.66922277E-02, -9.68422041E-06,
                       1.57392386E-09, -9.46671699E-14, -6.76971149E+02,
                      -4.67249759E+01])),
        note='Tolueneg1/93')

species(name='C9H10',
        atoms='C:9 H:10 O:0 N:0',
        thermo=(NASA([200.00, 711.40],
                     [-4.20138996E+00,  8.97428768E-02, -6.60001551E-05,
                       2.39136254E-08, -3.23197173E-12,  1.13498782E+04,
                       4.56955879E+01]),
                NASA([711.40, 2000.00],
                     [-4.20138996E+00,  8.97428768E-02, -6.60001551E-05,
                       2.39136254E-08, -3.23197173E-12,  1.13498782E+04,
                       4.56955879E+01])))

species(name='C15H16',
        atoms='C:15 H:16 O:0 N:0',
        thermo=(NASA([200.00, 820.95],
                     [-8.79157960E+00,  1.48438014E-01, -9.86666829E-05,
                       2.86787780E-08, -2.35720546E-12,  1.49735347E+04,
                       7.00780063E+01]),
                NASA([820.95, 2000.00],
                     [-8.79157960E+00,  1.48438014E-01, -9.86666829E-05,
                       2.86787780E-08, -2.35720546E-12,  1.49735347E+04,
                       7.00780063E+01])))

species(name='C15H15_T',
        atoms='C:15 H:15 O:0 N:0',
        thermo=(NASA([200.00, 820.74],
                     [-9.06518449E+00,  1.50030682E-01, -1.05382909E-04,
                       3.41921716E-08, -3.82775154E-12,  2.99174767E+04,
                       7.00306683E+01]),
                NASA([820.74, 2000.00],
                     [-9.06518449E+00,  1.50030682E-01, -1.05382909E-04,
                       3.41921716E-08, -3.82775154E-12,  2.99174767E+04,
                       7.00306683E+01])))

species(name='C9H12',
        atoms='C:9 H:12 O:0 N:0',
        thermo=(NASA([200.00, 665.63],
                     [-6.22963213E+00,  1.03249694E-01, -7.84765327E-05,
                       3.05672819E-08, -4.83388721E-12, -3.85371975E+02,
                       5.43056959E+01]),
                NASA([665.63, 2000.00],
                     [-6.22963213E+00,  1.03249694E-01, -7.84765327E-05,
                       3.05672819E-08, -4.83388721E-12, -3.85371975E+02,
                       5.43056959E+01])))

species(name='C6H6',
        atoms='C:6 H:6',
        thermo=(NASA([300.00, 1000.00],
                     [ 5.04818632E-01,  1.85020642E-02,  7.38345881E-05,
                      -1.18135741E-07,  5.07210429E-11,  8.55247913E+03,
                       2.16412893E+01]),
                NASA([1000.00, 4000.00],
                     [ 1.10809576E+01,  2.07176746E-02, -7.52145991E-06,
                       1.22320984E-09, -7.36091279E-14,  4.30641035E+03,
                      -4.00413310E+01])))

species(name='C2H4',
        atoms='C:2 H:4',
        thermo=(NASA([300.00, 1000.00],
                     [ 3.95920063E+00, -7.57051373E-03,  5.70989993E-05,
                      -6.91588352E-08,  2.69884190E-11,  5.08977598E+03,
                       4.09730213E+00]),
                NASA([1000.00, 4000.00],
                     [ 3.99182724E+00,  1.04833908E-02, -3.71721342E-06,
                       5.94628366E-10, -3.53630386E-14,  4.26865851E+03,
                      -2.69081762E-01])))

species(name='C3H6',
        atoms='C:3 H:6',
        thermo=(NASA([298.00, 1000.00],
                     [-1.54606737E+00,  4.36553128E-02, -5.61392417E-05,
                       4.98421927E-08, -1.84798923E-11,  2.07056233E+03,
                       2.99232495E+01]),
                NASA([1000.00, 6000.00],
                     [ 6.59032304E+00,  1.52592866E-02, -5.30369441E-06,
                       8.35510888E-10, -4.91215549E-14, -2.47481113E+02,
                      -1.15748238E+01])),
        note='8/12/15')

species(name='C4H8-1',
        atoms='C:4 H:8',
        thermo=(NASA([300.00, 1392.00],
                     [-8.31372089E-01,  4.52580978E-02, -2.93658559E-05,
                       1.00220436E-08, -1.43191680E-12, -1.57875035E+03,
                       2.95084236E+01]),
                NASA([1392.00, 4000.00],
                     [ 1.13508668E+01,  1.80617877E-02, -6.16093029E-06,
                       9.54652959E-10, -5.53089641E-14, -5.97871038E+03,
                      -3.64369438E+01])))

species(name='P-C16H16-P(L)',
        atoms='C:16 H:16 O:0 N:0',
        thermo=(NASA([200.00, 2000.00],
                     [ 2.54557987E+01,  4.71331569E-02,  2.07689452E-05,
                      -3.05072102E-08,  8.11919079E-12, -2.19477244E+03,
                      -1.22609262E+02]),
                NASA([2000.00, 2000.00],
                     [ 2.54557987E+01,  4.71331569E-02,  2.07689452E-05,
                      -3.05072102E-08,  8.11919079E-12, -2.19477244E+03,
                      -1.22609262E+02])))

species(name='P-C16H15-P(L)',
        atoms='C:16 H:15 O:0 N:0',
        thermo=(NASA([200.00, 2000.00],
                     [ 2.63335944E+01,  4.13799358E-02,  3.03889806E-05,
                      -4.03270777E-08,  1.15504818E-11,  1.10632099E+04,
                      -1.28640372E+02]),
                NASA([2000.00, 2000.00],
                     [ 2.63335944E+01,  4.13799358E-02,  3.03889806E-05,
                      -4.03270777E-08,  1.15504818E-11,  1.10632099E+04,
                      -1.28640372E+02])))

species(name='P-C16H17(L)',
        atoms='C:16 H:17 O:0 N:0',
        thermo=(NASA([200.00, 2000.00],
                     [ 2.56726504E+01,  4.79519379E-02,  2.06836454E-05,
                      -3.01571688E-08,  7.94557329E-12, -4.21402308E+03,
                      -1.22609262E+02]),
                NASA([2000.00, 2000.00],
                     [ 2.56726504E+01,  4.79519379E-02,  2.06836454E-05,
                      -3.01571688E-08,  7.94557329E-12, -4.21402308E+03,
                      -1.22609262E+02])))

species(name='P-C16H15(L)',
        atoms='C:16 H:15 O:0 N:0',
        thermo=(NASA([200.00, 2000.00],
                     [ 3.41668539E+01,  6.94879840E-02, -5.32634683E-05,
                       3.04733566E-08, -7.04576217E-12,  3.17669495E+03,
                      -1.22609262E+02]),
                NASA([2000.00, 2000.00],
                     [ 3.41668539E+01,  6.94879840E-02, -5.32634683E-05,
                       3.04733566E-08, -7.04576217E-12,  3.17669495E+03,
                      -1.22609262E+02])))

species(name='P-C16H16(L)',
        atoms='C:16 H:16 O:0 N:0',
        thermo=(NASA([200.00, 2000.00],
                     [ 2.65504461E+01,  4.21987168E-02,  3.03036808E-05,
                      -3.99770363E-08,  1.13768643E-11,  9.04395928E+03,
                      -1.28640372E+02]),
                NASA([2000.00, 2000.00],
                     [ 2.65504461E+01,  4.21987168E-02,  3.03036808E-05,
                      -3.99770363E-08,  1.13768643E-11,  9.04395928E+03,
                      -1.28640372E+02])))

species(name='P-C16H16_T(L)',
        atoms='C:16 H:16 O:0 N:0',
        thermo=(NASA([200.00, 2000.00],
                     [ 2.55619854E+01,  5.02447393E-02,  1.17374168E-05,
                      -2.28657347E-08,  6.04208608E-12,  1.06664232E+04,
                      -1.23979383E+02]),
                NASA([2000.00, 2000.00],
                     [ 2.55619854E+01,  5.02447393E-02,  1.17374168E-05,
                      -2.28657347E-08,  6.04208608E-12,  1.06664232E+04,
                      -1.23979383E+02])))

species(name='P-C16H14(L)',
        atoms='C:16 H:14 O:0 N:0',
        thermo=(NASA([200.00, 2000.00],
                     [ 3.50446496E+01,  6.37347629E-02, -4.36434329E-05,
                       2.06534891E-08, -3.61447113E-12,  1.64346773E+04,
                      -1.28640372E+02]),
                NASA([2000.00, 2000.00],
                     [ 3.50446496E+01,  6.37347629E-02, -4.36434329E-05,
                       2.06534891E-08, -3.61447113E-12,  1.64346773E+04,
                      -1.28640372E+02])))

species(name='P-C16H14_A(L)',
        atoms='C:16 H:14 O:0 N:0',
        thermo=(NASA([200.00, 2000.00],
                     [ 3.49926810E+01,  6.37525519E-02, -4.33847084E-05,
                       2.09265943E-08, -3.87896985E-12,  1.99744107E+04,
                      -1.28714347E+02]),
                NASA([2000.00, 2000.00],
                     [ 3.49926810E+01,  6.37525519E-02, -4.33847084E-05,
                       2.09265943E-08, -3.87896985E-12,  1.99744107E+04,
                      -1.28714347E+02])))

species(name='C16H18(L)',
        atoms='C:16 H:18 O:0 N:0',
        thermo=(NASA([200.00, 820.55],
                     [ 4.72612539E+01, -2.54191595E-01,  1.38010988E-03,
                      -2.42138400E-06,  1.53904255E-09, -5.99158923E+03,
                      -1.87931117E+02]),
                NASA([820.55, 2000.00],
                     [-1.06776915E+01,  1.70077094E-01, -1.22677885E-04,
                       4.22153687E-08, -5.31971563E-12,  1.11597132E+04,
                       7.99534183E+01])))

species(name='C24H26(L)',
        atoms='C:24 H:26 O:0 N:0',
        thermo=(NASA([200.00, 910.76],
                     [ 6.47275953E+01, -2.81496098E-01,  1.52203612E-03,
                      -2.45064149E-06,  1.40450562E-09, -6.92287575E+03,
                      -2.69099322E+02]),
                NASA([910.76, 2000.00],
                     [-1.70118628E+01,  2.58543576E-01, -1.90890440E-04,
                       6.74000463E-08, -8.76805421E-12,  1.88909769E+04,
                       1.15476553E+02])))

species(name='C16H16(L)',
        atoms='C:16 H:16 O:0 N:0',
        thermo=(NASA([200.00, 848.97],
                     [ 5.52703207E+01, -2.95670854E-01,  1.80499985E-03,
                      -3.43254895E-06,  2.18716004E-09, -1.20130927E+03,
                      -2.34474575E+02]),
                NASA([848.97, 2000.00],
                     [-1.01755961E+01,  1.74859279E-01, -1.27840674E-04,
                       4.53033124E-08, -6.01309789E-12,  2.08110408E+04,
                       7.94431970E+01])))

species(name='C24H24(L)',
        atoms='C:24 H:24 O:0 N:0',
        thermo=(NASA([200.00, 933.44],
                     [ 6.15288916E+01, -1.72167605E-01,  1.29797716E-03,
                      -2.37165492E-06,  1.44069588E-09, -1.64441751E+03,
                      -2.76260834E+02]),
                NASA([933.44, 2000.00],
                     [-1.65097674E+01,  2.63325761E-01, -1.96053228E-04,
                       7.04879900E-08, -9.46143647E-12,  2.85423045E+04,
                       1.14966331E+02])))

species(name='C16H14(L)',
        atoms='C:16 H:14 O:0 N:0',
        thermo=(NASA([200.00, 880.05],
                     [ 5.30377653E+01, -1.96199879E-01,  1.60452995E-03,
                      -3.35150216E-06,  2.18951917E-09,  4.01970789E+03,
                      -2.46623760E+02]),
                NASA([880.05, 2000.00],
                     [-9.67350074E+00,  1.79641464E-01, -1.33003462E-04,
                       4.83912560E-08, -6.70648014E-12,  3.04623685E+04,
                       7.75466814E+01])))

species(name='C24H22(L)',
        atoms='C:24 H:22 O:0 N:0',
        thermo=(NASA([200.00, 957.36],
                     [ 5.33942110E+01,  1.25029149E-03,  8.09372859E-04,
                      -1.86574950E-06,  1.24482487E-09,  3.87447001E+03,
                      -2.67294268E+02]),
                NASA([957.36, 2000.00],
                     [-1.60076720E+01,  2.68107946E-01, -2.01216017E-04,
                       7.35759336E-08, -1.01548187E-11,  3.81936322E+04,
                       1.13069816E+02])))

species(name='C16H17(L)',
        atoms='C:16 H:17 O:0 N:0',
        thermo=(NASA([200.00, 820.18],
                     [ 4.73864917E+01, -2.58027743E-01,  1.41065527E-03,
                      -2.50228783E-06,  1.59767277E-09,  7.26293072E+03,
                      -1.89989374E+02]),
                NASA([820.18, 2000.00],
                     [-7.32937766E+00,  1.51440125E-01, -9.24995675E-05,
                       1.95476374E-08,  8.68237147E-13,  2.40976424E+04,
                       6.37276763E+01])))

species(name='C24H25(L)',
        atoms='C:24 H:25 O:0 N:0',
        thermo=(NASA([200.00, 910.56],
                     [ 6.41370055E+01, -2.75358130E-01,  1.50750792E-03,
                      -2.45076859E-06,  1.41359446E-09,  6.36126199E+03,
                      -2.68663792E+02]),
                NASA([910.56, 2000.00],
                     [-1.36635489E+01,  2.39906606E-01, -1.60712122E-04,
                       4.47323150E-08, -2.58010144E-12,  3.18289061E+04,
                       9.92508107E+01])))

species(name='C16H17_T(L)',
        atoms='C:16 H:17 O:0 N:0',
        thermo=(NASA([200.00, 820.34],
                     [ 4.73926626E+01, -2.57310465E-01,  1.40223110E-03,
                      -2.47642356E-06,  1.57711949E-09,  8.82923026E+03,
                      -1.89853212E+02]),
                NASA([820.34, 2000.00],